Version 4.1
SHEET 1 4424 840
WIRE 704 -528 576 -528
WIRE 864 -528 768 -528
WIRE 976 -528 864 -528
WIRE 1152 -528 1040 -528
WIRE 1360 -528 1152 -528
WIRE 864 -480 864 -528
WIRE 1152 -432 1152 -528
WIRE 864 -400 864 -416
WIRE 416 -288 320 -288
WIRE 576 -288 576 -528
WIRE 576 -288 480 -288
WIRE 688 -288 576 -288
WIRE 864 -288 864 -320
WIRE 864 -288 752 -288
WIRE 1152 -288 1152 -368
WIRE 1152 -288 864 -288
WIRE 1360 -288 1360 -528
WIRE 2048 -288 1360 -288
WIRE 2224 -288 2048 -288
WIRE 2560 -288 2288 -288
WIRE 2928 -288 2560 -288
WIRE 3344 -288 3008 -288
WIRE 3488 -288 3344 -288
WIRE 3696 -288 3552 -288
WIRE 3808 -288 3696 -288
WIRE 4032 -288 3888 -288
WIRE 576 -240 576 -288
WIRE 2560 -240 2560 -288
WIRE 4032 -224 4032 -288
WIRE 1152 -192 1152 -288
WIRE 576 -160 576 -176
WIRE 2560 -128 2560 -160
WIRE 4032 -112 4032 -160
WIRE 4160 -112 4032 -112
WIRE 4368 -112 4240 -112
WIRE -176 -48 -576 -48
WIRE -64 -48 -176 -48
WIRE 16 -48 -64 -48
WIRE 128 -48 16 -48
WIRE 160 -48 128 -48
WIRE 288 -48 240 -48
WIRE 320 -48 320 -288
WIRE 320 -48 288 -48
WIRE 432 -48 320 -48
WIRE 576 -48 576 -80
WIRE 576 -48 496 -48
WIRE 1152 -48 1152 -128
WIRE 1152 -48 576 -48
WIRE -64 -32 -64 -48
WIRE 1152 -32 1152 -48
WIRE 2560 -32 2560 -48
WIRE 3696 -32 3696 -288
WIRE 4032 -32 4032 -112
WIRE -576 -16 -576 -48
WIRE 3344 -16 3344 -288
WIRE 4368 -16 4368 -112
WIRE 3232 0 2880 0
WIRE 3296 0 3232 0
WIRE 128 16 128 -48
WIRE 288 16 288 -48
WIRE 2880 48 2880 0
WIRE -64 64 -64 32
WIRE 1152 64 1152 32
WIRE 1360 64 1360 -288
WIRE 2560 64 2560 48
WIRE 16 80 16 -48
WIRE 48 80 16 80
WIRE 384 80 368 80
WIRE 464 80 448 80
WIRE -576 96 -576 64
WIRE 2880 160 2880 128
WIRE 3296 160 3296 48
WIRE 3296 160 2880 160
WIRE 3344 160 3344 64
WIRE 3344 160 3296 160
WIRE 3696 160 3696 32
WIRE 3696 160 3344 160
WIRE 4032 160 4032 48
WIRE 4032 160 3696 160
WIRE 4368 160 4368 64
WIRE 4368 160 4032 160
WIRE 48 176 0 176
WIRE 1360 176 1360 144
WIRE 1360 176 368 176
WIRE 2560 176 2560 144
WIRE 4032 208 4032 160
WIRE 1360 224 1360 176
WIRE -64 272 -80 272
WIRE 48 272 16 272
WIRE 384 272 368 272
WIRE 2560 272 2560 240
WIRE 1360 336 1360 304
WIRE 112 352 112 336
WIRE 208 352 208 336
WIRE 304 352 304 336
WIRE 112 432 112 416
WIRE 1360 432 1360 416
WIRE 304 448 304 432
WIRE 304 528 304 512
FLAG 112 432 0
FLAG 208 352 0
FLAG -80 272 0
FLAG -576 96 0
FLAG 1360 432 0
FLAG 1152 64 0
FLAG 464 80 0
FLAG -176 -48 IN
FLAG 2048 -288 OUT
FLAG 304 528 0
FLAG 384 272 0
FLAG -64 64 0
FLAG 4032 208 0
FLAG 3344 -288 Vcap
FLAG 3232 0 TRIG
FLAG 4368 -112 Isense
FLAG 2560 272 0
FLAG 2560 -288 V_DRIVER
FLAG 0 176 0
SYMBOL cap 96 352 R0
SYMATTR InstName C1
SYMATTR Value 0.22Ą
SYMBOL res 32 256 R90
WINDOW 0 0 56 VBottom 2
WINDOW 3 32 56 VTop 2
SYMATTR InstName R1
SYMATTR Value 130k
SYMBOL VOLTAGE -576 -32 R0
WINDOW 0 27 22 Left 2
WINDOW 123 0 0 Left 2
WINDOW 39 0 0 Left 2
SYMATTR InstName V1
SYMATTR Value PULSE(12 0 20m 100p 100p 1s 1s)
SYMBOL ind 144 -32 R270
WINDOW 0 32 56 VTop 2
WINDOW 3 5 56 VBottom 2
SYMATTR InstName L1
SYMATTR Value 22Ą
SYMATTR SpiceLine Rser=150m
SYMBOL schottky 432 -32 R270
WINDOW 0 32 32 VTop 2
WINDOW 3 0 32 VBottom 2
SYMATTR InstName D1
SYMATTR Value SMD115PBQ
SYMATTR Description Diode
SYMATTR Type diode
SYMBOL res 1344 48 R0
SYMATTR InstName R2
SYMATTR Value 1Meg
SYMBOL res 1344 320 R0
SYMATTR InstName R3
SYMATTR Value 4.99k
SYMBOL cap 384 96 R270
WINDOW 0 32 32 VTop 2
WINDOW 3 0 32 VBottom 2
SYMATTR InstName C2
SYMATTR Value 1Ą
SYMBOL cap 288 448 R0
WINDOW 39 24 77 Left 2
SYMATTR Value 1000p
SYMATTR InstName C3
SYMBOL cap 1136 -32 R0
WINDOW 3 25 56 Left 2
SYMATTR Value .22Ą
SYMATTR SpiceLine Rser=9m
SYMATTR InstName C4
SYMBOL LT8365 208 176 R0
SYMATTR InstName U1
SYMBOL res 288 336 R0
SYMATTR InstName R4
SYMATTR Value 91k
SYMBOL cap -80 -32 R0
SYMATTR InstName C5
SYMATTR Value 10Ą
SYMBOL schottky 592 -176 R180
WINDOW 0 24 64 Left 2
WINDOW 3 24 0 Left 2
SYMATTR InstName D2
SYMATTR Value SMD115PBQ
SYMATTR Description Diode
SYMATTR Type diode
SYMBOL cap 480 -304 R90
WINDOW 0 0 32 VBottom 2
WINDOW 3 32 32 VTop 2
SYMATTR InstName C6
SYMATTR Value 100n
SYMBOL res 560 -176 R0
SYMATTR InstName R5
SYMATTR Value 20
SYMBOL schottky 688 -272 R270
WINDOW 0 32 32 VTop 2
WINDOW 3 0 32 VBottom 2
SYMATTR InstName D3
SYMATTR Value SMD115PBQ
SYMATTR Description Diode
SYMATTR Type diode
SYMBOL cap 1136 -192 R0
WINDOW 3 25 56 Left 2
SYMATTR Value .22Ą
SYMATTR SpiceLine Rser=9m
SYMATTR InstName C7
SYMBOL res 1344 208 R0
SYMATTR InstName R6
SYMATTR Value 0
SYMBOL voltage 2880 32 R0
WINDOW 123 0 0 Left 0
WINDOW 39 0 0 Left 0
SYMATTR InstName V2
SYMATTR Value PULSE(0 1 18m 1p 1p 2n 50u 10)
SYMBOL sw 3344 80 M180
SYMATTR InstName S1
SYMATTR Value FMMT417
SYMBOL cap 3488 -272 R270
WINDOW 0 32 32 VTop 2
WINDOW 3 0 32 VBottom 2
SYMATTR InstName C8
SYMATTR Value 200p
SYMBOL res 4048 64 R180
WINDOW 0 36 76 Left 2
WINDOW 3 36 40 Left 2
SYMATTR InstName R7
SYMATTR Value 0.02
SYMBOL res 4256 -128 R90
WINDOW 0 0 56 VBottom 2
WINDOW 3 32 56 VTop 2
SYMATTR InstName R9
SYMATTR Value 50
SYMBOL res 4384 80 R180
WINDOW 0 36 76 Left 2
WINDOW 3 36 40 Left 2
SYMATTR InstName R10
SYMATTR Value 50
SYMBOL diode 4048 -160 R180
WINDOW 0 24 64 Left 2
WINDOW 3 24 0 Left 2
SYMATTR InstName D5
SYMATTR Value LASER_PLPT9
SYMBOL ind 3792 -272 R270
WINDOW 0 32 56 VTop 2
WINDOW 3 5 56 VBottom 2
SYMATTR InstName L_parasitic
SYMATTR Value 0.5n
SYMATTR SpiceLine Rser=1m
SYMBOL schottky 3680 -32 R0
SYMATTR InstName D6
SYMATTR Value RBQ15BGE10A
SYMATTR Description Diode
SYMATTR Type diode
SYMBOL LED 2544 176 R0
SYMATTR InstName D4
SYMATTR Value NSCW100
SYMBOL diode 2224 -272 R270
WINDOW 0 32 32 VTop 2
WINDOW 3 0 32 VBottom 2
SYMATTR InstName D7
SYMATTR Value 1N4007
SYMBOL res 2576 160 R180
WINDOW 0 36 76 Left 2
WINDOW 3 36 40 Left 2
SYMATTR InstName R11
SYMATTR Value 160k
SYMBOL res 2576 64 R180
WINDOW 0 36 76 Left 2
WINDOW 3 36 40 Left 2
SYMATTR InstName R12
SYMATTR Value 160k
SYMBOL res 2576 -32 R180
WINDOW 0 36 76 Left 2
WINDOW 3 36 40 Left 2
SYMATTR InstName R13
SYMATTR Value 160k
SYMBOL res 2576 -144 R180
WINDOW 0 36 76 Left 2
WINDOW 3 36 40 Left 2
SYMATTR InstName R14
SYMATTR Value 160k
SYMBOL res 3024 -304 R90
WINDOW 0 0 56 VBottom 2
WINDOW 3 32 56 VTop 2
SYMATTR InstName R15
SYMATTR Value 47k
SYMBOL schottky 880 -416 R180
WINDOW 0 24 64 Left 2
WINDOW 3 24 0 Left 2
SYMATTR InstName D8
SYMATTR Value SMD115PBQ
SYMATTR Description Diode
SYMATTR Type diode
SYMBOL cap 768 -544 R90
WINDOW 0 0 32 VBottom 2
WINDOW 3 32 32 VTop 2
SYMATTR InstName C9
SYMATTR Value 100n
SYMBOL schottky 976 -512 R270
WINDOW 0 32 32 VTop 2
WINDOW 3 0 32 VBottom 2
SYMATTR InstName D9
SYMATTR Value SMD115PBQ
SYMATTR Description Diode
SYMATTR Type diode
SYMBOL cap 1136 -432 R0
WINDOW 3 25 56 Left 2
SYMATTR Value .22Ą
SYMATTR SpiceLine Rser=9m
SYMATTR InstName C10
SYMBOL res 848 -416 R0
SYMATTR InstName R16
SYMATTR Value 20
TEXT -240 648 Left 2 !.tran 0 25m 0 .1m startup
TEXT -240 672 Left 2 !.model FMMT417 SW Ron=2 Roff=1G Vt=.5)
TEXT -240 696 Left 2 !.model LASER_PLPT9 D(Vfwd=5 IS=1e-12 N=2.0 RS=0.2 CJO=5e-12 TT=1e-7 BV=0 IBV=1e-3)
TEXT 1496 232 Left 2 ;5k Poti\n0   -> Max output ~330V\n5k -> Min Output ~160V
TEXT -240 720 Left 2 !.model SMD115PBQ D(Vfwd=0.81 IS=1e-12 CJO=25e-12)
