Version 4.1
SHEET 1 3128 840
WIRE 416 -288 320 -288
WIRE 576 -288 480 -288
WIRE 688 -288 576 -288
WIRE 864 -288 752 -288
WIRE 1072 -288 864 -288
WIRE 1232 -288 1072 -288
WIRE 1920 -288 1232 -288
WIRE 2176 -288 2000 -288
WIRE 2320 -288 2176 -288
WIRE 2528 -288 2384 -288
WIRE 2720 -288 2528 -288
WIRE 576 -240 576 -288
WIRE 2720 -224 2720 -288
WIRE 864 -192 864 -288
WIRE 576 -160 576 -176
WIRE 2720 -112 2720 -160
WIRE 2848 -112 2720 -112
WIRE 3056 -112 2928 -112
WIRE -64 -48 -176 -48
WIRE 16 -48 -64 -48
WIRE 128 -48 16 -48
WIRE 160 -48 128 -48
WIRE 288 -48 240 -48
WIRE 320 -48 320 -288
WIRE 320 -48 288 -48
WIRE 432 -48 320 -48
WIRE 576 -48 576 -80
WIRE 576 -48 496 -48
WIRE 864 -48 864 -128
WIRE 864 -48 576 -48
WIRE -176 -32 -176 -48
WIRE -64 -32 -64 -48
WIRE 864 -32 864 -48
WIRE 2528 -32 2528 -288
WIRE 2720 -32 2720 -112
WIRE 2176 -16 2176 -288
WIRE 3056 -16 3056 -112
WIRE 2064 0 1712 0
WIRE 2128 0 2064 0
WIRE 128 16 128 -48
WIRE 288 16 288 -48
WIRE 1712 48 1712 0
WIRE -176 64 -176 48
WIRE -64 64 -64 32
WIRE 864 64 864 32
WIRE 1072 64 1072 -288
WIRE 16 80 16 -48
WIRE 48 80 16 80
WIRE 384 80 368 80
WIRE 464 80 448 80
WIRE 1712 160 1712 128
WIRE 2128 160 2128 48
WIRE 2128 160 1712 160
WIRE 2176 160 2176 64
WIRE 2176 160 2128 160
WIRE 2528 160 2528 32
WIRE 2528 160 2176 160
WIRE 2720 160 2720 48
WIRE 2720 160 2528 160
WIRE 3056 160 3056 64
WIRE 3056 160 2720 160
WIRE 48 176 32 176
WIRE 1072 176 1072 144
WIRE 1072 176 368 176
WIRE 2720 208 2720 160
WIRE 1072 224 1072 176
WIRE -64 272 -80 272
WIRE 48 272 16 272
WIRE 384 272 368 272
WIRE 1072 336 1072 304
WIRE 112 352 112 336
WIRE 208 352 208 336
WIRE 304 352 304 336
WIRE 112 432 112 416
WIRE 1072 432 1072 416
WIRE 304 448 304 432
WIRE 304 528 304 512
FLAG 112 432 0
FLAG 208 352 0
FLAG -80 272 0
FLAG -176 64 0
FLAG 1072 432 0
FLAG 864 64 0
FLAG 464 80 0
FLAG -176 -48 IN
FLAG 1232 -288 OUT
FLAG 304 528 0
FLAG 32 176 0
FLAG 384 272 0
FLAG -64 64 0
FLAG 2720 208 0
FLAG 2176 -288 Vcap
FLAG 2064 0 TRIG
FLAG 3056 -112 Isense
SYMBOL cap 96 352 R0
SYMATTR InstName C1
SYMATTR Value 2000p
SYMBOL res 32 256 R90
WINDOW 0 0 56 VBottom 2
WINDOW 3 32 56 VTop 2
SYMATTR InstName R1
SYMATTR Value 130k
SYMBOL VOLTAGE -176 -48 R0
WINDOW 0 27 22 Left 2
WINDOW 123 0 0 Left 2
WINDOW 39 0 0 Left 2
SYMATTR InstName V1
SYMATTR Value 12
SYMBOL ind 144 -32 R270
WINDOW 0 32 56 VTop 2
WINDOW 3 5 56 VBottom 2
SYMATTR InstName L1
SYMATTR Value 10Ą
SYMATTR SpiceLine Rser=320m
SYMBOL schottky 432 -32 R270
WINDOW 0 32 32 VTop 2
WINDOW 3 0 32 VBottom 2
SYMATTR InstName D1
SYMATTR Value RB058LAM150
SYMATTR Description Diode
SYMATTR Type diode
SYMBOL res 1056 48 R0
SYMATTR InstName R2
SYMATTR Value 1Meg
SYMBOL res 1056 320 R0
SYMATTR InstName R3
SYMATTR Value 6.2k
SYMBOL cap 384 96 R270
WINDOW 0 32 32 VTop 2
WINDOW 3 0 32 VBottom 2
SYMATTR InstName C2
SYMATTR Value 1Ą
SYMBOL cap 288 448 R0
WINDOW 39 24 77 Left 2
SYMATTR Value 1000p
SYMATTR InstName C3
SYMBOL cap 848 -32 R0
WINDOW 3 25 56 Left 2
SYMATTR Value .22Ą
SYMATTR SpiceLine Rser=9m
SYMATTR InstName C4
SYMBOL LT8365 208 176 R0
SYMATTR InstName U1
SYMBOL res 288 336 R0
SYMATTR InstName R4
SYMATTR Value 91k
SYMBOL cap -80 -32 R0
SYMATTR InstName C5
SYMATTR Value 10Ą
SYMBOL schottky 592 -176 R180
WINDOW 0 24 64 Left 2
WINDOW 3 24 0 Left 2
SYMATTR InstName D2
SYMATTR Value RB058LAM150
SYMATTR Description Diode
SYMATTR Type diode
SYMBOL cap 480 -304 R90
WINDOW 0 0 32 VBottom 2
WINDOW 3 32 32 VTop 2
SYMATTR InstName C6
SYMATTR Value 100n
SYMBOL res 560 -176 R0
SYMATTR InstName R5
SYMATTR Value 20
SYMBOL schottky 688 -272 R270
WINDOW 0 32 32 VTop 2
WINDOW 3 0 32 VBottom 2
SYMATTR InstName D3
SYMATTR Value RB058LAM150
SYMATTR Description Diode
SYMATTR Type diode
SYMBOL cap 848 -192 R0
WINDOW 3 25 56 Left 2
SYMATTR Value .22Ą
SYMATTR SpiceLine Rser=9m
SYMATTR InstName C7
SYMBOL res 1056 208 R0
SYMATTR InstName R6
SYMATTR Value 0
SYMBOL voltage 1712 32 R0
WINDOW 123 0 0 Left 0
WINDOW 39 0 0 Left 0
SYMATTR InstName V2
SYMATTR Value PULSE(0 1 5m 1p 1p 2n 200u 20)
SYMBOL sw 2176 80 M180
SYMATTR InstName S1
SYMATTR Value FMMT417
SYMBOL cap 2320 -272 R270
WINDOW 0 32 32 VTop 2
WINDOW 3 0 32 VBottom 2
SYMATTR InstName C8
SYMATTR Value 200p
SYMBOL res 2736 64 R180
WINDOW 0 36 76 Left 2
WINDOW 3 36 40 Left 2
SYMATTR InstName R7
SYMATTR Value 0.1
SYMBOL res 1904 -272 R270
WINDOW 0 32 56 VTop 2
WINDOW 3 0 56 VBottom 2
SYMATTR InstName R8
SYMATTR Value 1k
SYMBOL diode 2512 -32 R0
SYMATTR InstName D4
SYMATTR Value 1N5819
SYMBOL res 2944 -128 R90
WINDOW 0 0 56 VBottom 2
WINDOW 3 32 56 VTop 2
SYMATTR InstName R9
SYMATTR Value 50
SYMBOL res 3072 80 R180
WINDOW 0 36 76 Left 2
WINDOW 3 36 40 Left 2
SYMATTR InstName R10
SYMATTR Value 50
SYMBOL diode 2736 -160 R180
WINDOW 0 24 64 Left 2
WINDOW 3 24 0 Left 2
SYMATTR InstName D5
SYMATTR Value LASER_PLPT9
TEXT -240 648 Left 2 !.tran 0 10m 0 .005m startup
TEXT -240 672 Left 2 !.model FMMT417 SW Ron=2 Roff=1G Vt=.5)
TEXT -240 696 Left 2 !.model LASER_PLPT9 D(Vfwd=5 IS=1e-12 N=2.0 RS=0.2 CJO=5e-12 TT=1e-7 BV=0 IBV=1e-3)
TEXT 1168 248 Left 2 ;10k Poti\n0     -> Max output ~260V\n10k -> Min Output ~100V
