Version 4.1
SHEET 1 1656 900
WIRE 128 -240 -224 -240
WIRE 384 -240 208 -240
WIRE 528 -240 384 -240
WIRE 736 -240 592 -240
WIRE 928 -240 736 -240
WIRE 928 -176 928 -240
WIRE -224 -112 -224 -240
WIRE 928 -64 928 -112
WIRE 1056 -64 928 -64
WIRE 1264 -64 1136 -64
WIRE 736 16 736 -240
WIRE 928 16 928 -64
WIRE 384 32 384 -240
WIRE 1264 32 1264 -64
WIRE 272 48 -80 48
WIRE 336 48 272 48
WIRE -80 96 -80 48
WIRE -224 208 -224 -32
WIRE -80 208 -80 176
WIRE -80 208 -224 208
WIRE 336 208 336 96
WIRE 336 208 -80 208
WIRE 384 208 384 112
WIRE 384 208 336 208
WIRE 736 208 736 80
WIRE 736 208 384 208
WIRE 928 208 928 96
WIRE 928 208 736 208
WIRE 1264 208 1264 112
WIRE 1264 208 928 208
WIRE 928 256 928 208
FLAG 928 256 0
FLAG 384 -240 Vcap
FLAG 272 48 TRIG
FLAG 1264 -64 Isense
SYMBOL voltage -80 80 R0
WINDOW 123 0 0 Left 0
WINDOW 39 0 0 Left 0
SYMATTR InstName V1
SYMATTR Value PULSE(0 1 10u 1p 1p 2n 200u 2)
SYMBOL sw 384 128 M180
SYMATTR InstName S1
SYMATTR Value FMMT417
SYMBOL cap 528 -224 R270
WINDOW 0 32 32 VTop 2
WINDOW 3 0 32 VBottom 2
SYMATTR InstName C1
SYMATTR Value 200p
SYMBOL res 944 112 R180
WINDOW 0 36 76 Left 2
WINDOW 3 36 40 Left 2
SYMATTR InstName R1
SYMATTR Value 0.1
SYMBOL res 112 -224 R270
WINDOW 0 32 56 VTop 2
WINDOW 3 0 56 VBottom 2
SYMATTR InstName R2
SYMATTR Value 1k
SYMBOL voltage -224 -128 R0
WINDOW 123 0 0 Left 0
WINDOW 39 24 124 Left 2
SYMATTR InstName V2
SYMATTR Value PULSE(0 250 0 1p 1p 1s 2s 1)
SYMBOL diode 720 16 R0
SYMATTR InstName D1
SYMATTR Value 1N5819
SYMBOL res 1152 -80 R90
WINDOW 0 0 56 VBottom 2
WINDOW 3 32 56 VTop 2
SYMATTR InstName R3
SYMATTR Value 50
SYMBOL res 1280 128 R180
WINDOW 0 36 76 Left 2
WINDOW 3 36 40 Left 2
SYMATTR InstName R4
SYMATTR Value 50
SYMBOL diode 944 -112 R180
WINDOW 0 24 64 Left 2
WINDOW 3 24 0 Left 2
SYMATTR InstName D2
SYMATTR Value LASER_PLPT9
TEXT -232 440 Left 2 !.tran 0 20u 0 0.01n
TEXT -232 464 Left 2 !.model FMMT417 SW Ron=2 Roff=1G Vt=.5)
TEXT -232 352 Left 2 ;- Target pulse frequency: 5 kHz -> 200us period. We simulate 2 cycles -> 400us\n- Isense has a ratio of 20A/V
TEXT -232 488 Left 2 !.model LASER_PLPT9 D(Vfwd=5 IS=1e-12 N=2.0 RS=0.2 CJO=5e-12 TT=1e-7 BV=0 IBV=1e-3)
