Version 4.1
SHEET 1 3608 840
WIRE 416 -288 320 -288
WIRE 576 -288 480 -288
WIRE 688 -288 576 -288
WIRE 864 -288 752 -288
WIRE 1072 -288 864 -288
WIRE 1232 -288 1072 -288
WIRE 1408 -288 1232 -288
WIRE 1744 -288 1472 -288
WIRE 2112 -288 1744 -288
WIRE 2528 -288 2192 -288
WIRE 2672 -288 2528 -288
WIRE 2880 -288 2736 -288
WIRE 2992 -288 2880 -288
WIRE 3216 -288 3072 -288
WIRE 576 -240 576 -288
WIRE 1744 -240 1744 -288
WIRE 3216 -224 3216 -288
WIRE 864 -192 864 -288
WIRE 2880 -192 2880 -288
WIRE 576 -160 576 -176
WIRE 1744 -128 1744 -160
WIRE 3216 -112 3216 -160
WIRE 3344 -112 3216 -112
WIRE 3552 -112 3424 -112
WIRE -176 -48 -576 -48
WIRE -64 -48 -176 -48
WIRE 16 -48 -64 -48
WIRE 128 -48 16 -48
WIRE 160 -48 128 -48
WIRE 288 -48 240 -48
WIRE 320 -48 320 -288
WIRE 320 -48 288 -48
WIRE 432 -48 320 -48
WIRE 576 -48 576 -80
WIRE 576 -48 496 -48
WIRE 864 -48 864 -128
WIRE 864 -48 576 -48
WIRE -64 -32 -64 -48
WIRE 864 -32 864 -48
WIRE 1744 -32 1744 -48
WIRE 2880 -32 2880 -112
WIRE 3216 -32 3216 -112
WIRE -576 -16 -576 -48
WIRE 2528 -16 2528 -288
WIRE 3552 -16 3552 -112
WIRE 2416 0 2064 0
WIRE 2480 0 2416 0
WIRE 128 16 128 -48
WIRE 288 16 288 -48
WIRE 2064 48 2064 0
WIRE -64 64 -64 32
WIRE 864 64 864 32
WIRE 1072 64 1072 -288
WIRE 1744 64 1744 48
WIRE 16 80 16 -48
WIRE 48 80 16 80
WIRE 384 80 368 80
WIRE 464 80 448 80
WIRE -576 96 -576 64
WIRE 2064 160 2064 128
WIRE 2480 160 2480 48
WIRE 2480 160 2064 160
WIRE 2528 160 2528 64
WIRE 2528 160 2480 160
WIRE 2880 160 2880 32
WIRE 2880 160 2528 160
WIRE 3216 160 3216 48
WIRE 3216 160 2880 160
WIRE 3552 160 3552 64
WIRE 3552 160 3216 160
WIRE 48 176 32 176
WIRE 1072 176 1072 144
WIRE 1072 176 368 176
WIRE 1744 176 1744 144
WIRE 3216 208 3216 160
WIRE 1072 224 1072 176
WIRE -64 272 -80 272
WIRE 48 272 16 272
WIRE 384 272 368 272
WIRE 1744 272 1744 240
WIRE 1072 336 1072 304
WIRE 112 352 112 336
WIRE 208 352 208 336
WIRE 304 352 304 336
WIRE 112 432 112 416
WIRE 1072 432 1072 416
WIRE 304 448 304 432
WIRE 304 528 304 512
FLAG 112 432 0
FLAG 208 352 0
FLAG -80 272 0
FLAG -576 96 0
FLAG 1072 432 0
FLAG 864 64 0
FLAG 464 80 0
FLAG -176 -48 IN
FLAG 1232 -288 OUT
FLAG 304 528 0
FLAG 32 176 0
FLAG 384 272 0
FLAG -64 64 0
FLAG 3216 208 0
FLAG 2528 -288 Vcap
FLAG 2416 0 TRIG
FLAG 3552 -112 Isense
FLAG 1744 272 0
FLAG 1744 -288 V_DRIVER
SYMBOL cap 96 352 R0
SYMATTR InstName C1
SYMATTR Value 0.22Á
SYMBOL res 32 256 R90
WINDOW 0 0 56 VBottom 2
WINDOW 3 32 56 VTop 2
SYMATTR InstName R1
SYMATTR Value 130k
SYMBOL VOLTAGE -576 -32 R0
WINDOW 0 27 22 Left 2
WINDOW 123 0 0 Left 2
WINDOW 39 0 0 Left 2
SYMATTR InstName V1
SYMATTR Value PULSE(12 0 20m 100p 100p 1s 1s)
SYMBOL ind 144 -32 R270
WINDOW 0 32 56 VTop 2
WINDOW 3 5 56 VBottom 2
SYMATTR InstName L1
SYMATTR Value 22Á
SYMATTR SpiceLine Rser=150m
SYMBOL schottky 432 -32 R270
WINDOW 0 32 32 VTop 2
WINDOW 3 0 32 VBottom 2
SYMATTR InstName D1
SYMATTR Value SMD115PBQ
SYMATTR Description Diode
SYMATTR Type diode
SYMBOL res 1056 48 R0
SYMATTR InstName R2
SYMATTR Value 1Meg
SYMBOL res 1056 320 R0
SYMATTR InstName R3
SYMATTR Value 6.2k
SYMBOL cap 384 96 R270
WINDOW 0 32 32 VTop 2
WINDOW 3 0 32 VBottom 2
SYMATTR InstName C2
SYMATTR Value 1Á
SYMBOL cap 288 448 R0
WINDOW 39 24 77 Left 2
SYMATTR Value 1000p
SYMATTR InstName C3
SYMBOL cap 848 -32 R0
WINDOW 3 25 56 Left 2
SYMATTR Value .22Á
SYMATTR SpiceLine Rser=9m
SYMATTR InstName C4
SYMBOL LT8365 208 176 R0
SYMATTR InstName U1
SYMBOL res 288 336 R0
SYMATTR InstName R4
SYMATTR Value 91k
SYMBOL cap -80 -32 R0
SYMATTR InstName C5
SYMATTR Value 10Á
SYMBOL schottky 592 -176 R180
WINDOW 0 24 64 Left 2
WINDOW 3 24 0 Left 2
SYMATTR InstName D2
SYMATTR Value SMD115PBQ
SYMATTR Description Diode
SYMATTR Type diode
SYMBOL cap 480 -304 R90
WINDOW 0 0 32 VBottom 2
WINDOW 3 32 32 VTop 2
SYMATTR InstName C6
SYMATTR Value 100n
SYMBOL res 560 -176 R0
SYMATTR InstName R5
SYMATTR Value 20
SYMBOL schottky 688 -272 R270
WINDOW 0 32 32 VTop 2
WINDOW 3 0 32 VBottom 2
SYMATTR InstName D3
SYMATTR Value SMD115PBQ
SYMATTR Description Diode
SYMATTR Type diode
SYMBOL cap 848 -192 R0
WINDOW 3 25 56 Left 2
SYMATTR Value .22Á
SYMATTR SpiceLine Rser=9m
SYMATTR InstName C7
SYMBOL res 1056 208 R0
SYMATTR InstName R6
SYMATTR Value 0
SYMBOL voltage 2064 32 R0
WINDOW 123 0 0 Left 0
WINDOW 39 0 0 Left 0
SYMATTR InstName V2
SYMATTR Value PULSE(0 1 18m 1p 1p 2n 50u 10)
SYMBOL sw 2528 80 M180
SYMATTR InstName S1
SYMATTR Value FMMT417
SYMBOL cap 2672 -272 R270
WINDOW 0 32 32 VTop 2
WINDOW 3 0 32 VBottom 2
SYMATTR InstName C8
SYMATTR Value 200p
SYMBOL res 3232 64 R180
WINDOW 0 36 76 Left 2
WINDOW 3 36 40 Left 2
SYMATTR InstName R7
SYMATTR Value 0.05
SYMBOL res 2864 -208 R0
SYMATTR InstName R8
SYMATTR Value 2k
SYMBOL res 3440 -128 R90
WINDOW 0 0 56 VBottom 2
WINDOW 3 32 56 VTop 2
SYMATTR InstName R9
SYMATTR Value 50
SYMBOL res 3568 80 R180
WINDOW 0 36 76 Left 2
WINDOW 3 36 40 Left 2
SYMATTR InstName R10
SYMATTR Value 50
SYMBOL diode 3232 -160 R180
WINDOW 0 24 64 Left 2
WINDOW 3 24 0 Left 2
SYMATTR InstName D5
SYMATTR Value LASER_PLPT9
SYMBOL ind 2976 -272 R270
WINDOW 0 32 56 VTop 2
WINDOW 3 5 56 VBottom 2
SYMATTR InstName L_parasitic
SYMATTR Value 0.5n
SYMATTR SpiceLine Rser=1m
SYMBOL schottky 2864 -32 R0
SYMATTR InstName D6
SYMATTR Value RBQ15BGE10A
SYMATTR Description Diode
SYMATTR Type diode
SYMBOL LED 1728 176 R0
SYMATTR InstName D4
SYMATTR Value NSCW100
SYMBOL diode 1408 -272 R270
WINDOW 0 32 32 VTop 2
WINDOW 3 0 32 VBottom 2
SYMATTR InstName D7
SYMATTR Value 1N4007
SYMBOL res 1760 160 R180
WINDOW 0 36 76 Left 2
WINDOW 3 36 40 Left 2
SYMATTR InstName R11
SYMATTR Value 130k
SYMBOL res 1760 64 R180
WINDOW 0 36 76 Left 2
WINDOW 3 36 40 Left 2
SYMATTR InstName R12
SYMATTR Value 130k
SYMBOL res 1760 -32 R180
WINDOW 0 36 76 Left 2
WINDOW 3 36 40 Left 2
SYMATTR InstName R13
SYMATTR Value 130k
SYMBOL res 1760 -144 R180
WINDOW 0 36 76 Left 2
WINDOW 3 36 40 Left 2
SYMATTR InstName R14
SYMATTR Value 130k
SYMBOL res 2208 -304 R90
WINDOW 0 0 56 VBottom 2
WINDOW 3 32 56 VTop 2
SYMATTR InstName R15
SYMATTR Value 2k
TEXT -240 648 Left 2 !.tran 0 25m 0 .01m startup
TEXT -240 672 Left 2 !.model FMMT417 SW Ron=2 Roff=1G Vt=.5)
TEXT -240 696 Left 2 !.model LASER_PLPT9 D(Vfwd=5 IS=1e-12 N=2.0 RS=0.2 CJO=5e-12 TT=1e-7 BV=0 IBV=1e-3)
TEXT 1168 248 Left 2 ;10k Poti\n0     -> Max output ~260V\n10k -> Min Output ~100V
TEXT -240 720 Left 2 !.model SMD115PBQ D(Vfwd=0.81 IS=1e-12 CJO=25e-12)
