Version 4.1
SHEET 1 2648 728
WIRE 2400 336 2304 336
WIRE 2560 336 2464 336
WIRE 2304 384 2304 336
WIRE 2560 400 2560 336
WIRE 1264 432 1040 432
WIRE 1440 432 1344 432
WIRE 1760 432 1488 432
WIRE 2096 432 1840 432
WIRE 2240 432 2096 432
WIRE 1040 480 1040 432
WIRE 1440 480 1440 432
WIRE 1488 480 1488 432
WIRE 2096 496 2096 432
WIRE 1040 608 1040 560
WIRE 1440 608 1440 560
WIRE 1440 608 1040 608
WIRE 1488 608 1488 560
WIRE 1488 608 1440 608
WIRE 2096 608 2096 560
WIRE 2096 608 1488 608
WIRE 2304 608 2304 480
WIRE 2304 608 2096 608
WIRE 2560 608 2560 480
WIRE 2560 608 2304 608
WIRE 2304 640 2304 608
FLAG 2304 640 0
FLAG 2096 432 TRIG2
FLAG 1040 432 EXT_SIG2
SYMBOL res 1856 416 R90
WINDOW 0 0 56 VBottom 2
WINDOW 3 32 56 VTop 2
SYMATTR InstName R2
SYMATTR Value 0
SYMBOL voltage 1040 464 R0
WINDOW 123 -1 190 Left 2
WINDOW 39 -1 189 Left 2
WINDOW 3 2 167 Left 2
SYMATTR Value2 AC 0 0
SYMATTR InstName V1
SYMATTR Value PULSE(0 5 0 70n 70n 1u 5u)
SYMBOL npn 2240 384 R0
SYMATTR InstName Q1
SYMATTR Value ZTX1048A
SYMBOL voltage 2560 384 R0
WINDOW 123 0 0 Left 0
WINDOW 39 0 0 Left 0
SYMATTR InstName V3
SYMATTR Value 200V
SYMBOL ind 1424 464 R0
WINDOW 0 -30 41 Left 2
WINDOW 3 -57 65 Left 2
SYMATTR InstName L1
SYMATTR Value 10”
SYMATTR Type ind
SYMATTR SpiceLine Rser=1
SYMBOL ind 1504 464 M0
WINDOW 0 -25 39 Left 2
WINDOW 3 -59 69 Left 2
SYMATTR InstName L2
SYMATTR Value 10”
SYMATTR Type ind
SYMATTR SpiceLine Rser=1
SYMBOL res 1360 416 R90
WINDOW 0 0 56 VBottom 2
WINDOW 3 32 56 VTop 2
SYMATTR InstName R8
SYMATTR Value 50
SYMBOL schottky 2112 560 R180
WINDOW 0 24 64 Left 2
WINDOW 3 24 0 Left 2
SYMATTR InstName D3
SYMATTR Value 1N5817
SYMBOL diode 2464 320 R90
WINDOW 0 0 32 VBottom 2
WINDOW 3 32 32 VTop 2
SYMATTR InstName D4
SYMATTR Value UPSC600
SYMATTR Description Diode
SYMATTR Type diode
TEXT 1040 680 Left 2 !K L1 L2 1.0
TEXT 1040 704 Left 2 !.tran 10u
TEXT 1208 376 Left 2 ;50 Ohm termination
TEXT 1712 376 Left 2 ;current limiting
